<?xml version="1.0" encoding="UTF-8"?>
<!DOCTYPE network SYSTEM "http://www.matsim.org/files/dtd/network_v2.dtd">
<network>

<!-- ====================================================================== -->

	<nodes>
		<node id="1001568643" x="-7347433.28816257" y="-2852981.6323715686" >
		</node>
		<node id="1001568979" x="-7347522.284498743" y="-2853614.5465874914" >
		</node>
		<node id="1036648427" x="-7330256.36170953" y="-2853959.906814551" >
		</node>
		<node id="1036648432" x="-7330120.828719032" y="-2853699.746066185" >
		</node>
		<node id="1037938768" x="-7329440.267125716" y="-2853410.274813917" >
		</node>
		<node id="1038690657" x="-7332848.511279438" y="-2852493.3908545393" >
		</node>
		<node id="1038690680" x="-7332458.038330299" y="-2852808.5868581147" >
		</node>
		<node id="1038746196" x="-7333227.937528329" y="-2852157.118679892" >
		</node>
		<node id="1038746200" x="-7333014.591162453" y="-2852150.6303719715" >
		</node>
		<node id="1038746209" x="-7333202.999706394" y="-2852080.69650087" >
		</node>
		<node id="1038746211" x="-7333215.753816085" y="-2852069.995502077" >
		</node>
		<node id="1038746260" x="-7333280.493043475" y="-2852003.5434363005" >
		</node>
		<node id="1038760293" x="-7332940.680508239" y="-2852239.775766234" >
		</node>
		<node id="1038790351" x="-7332913.42947196" y="-2852246.018569733" >
		</node>
		<node id="1038790352" x="-7332902.293093178" y="-2852291.471369537" >
		</node>
		<node id="1038790363" x="-7332872.9380755145" y="-2852303.498188917" >
		</node>
		<node id="1038793906" x="-7332791.336644377" y="-2851586.1122653643" >
		</node>
		<node id="1038793934" x="-7332928.962715193" y="-2852422.4649027633" >
		</node>
		<node id="1038796785" x="-7333392.665886334" y="-2852081.2332669324" >
		</node>
		<node id="1041041050" x="-7333379.591594423" y="-2852074.1701989863" >
		</node>
		<node id="1041041311" x="-7333351.223256638" y="-2852057.846796291" >
		</node>
		<node id="1041285621" x="-7334407.606572982" y="-2851856.1339318105" >
		</node>
		<node id="1041285743" x="-7334081.574792377" y="-2851936.1867543664" >
		</node>
		<node id="1041285801" x="-7333629.973307726" y="-2852132.589322734" >
		</node>
		<node id="1041285825" x="-7334057.599630642" y="-2851928.4714539414" >
		</node>
		<node id="1046116359" x="-7332882.559451979" y="-2852344.1322777774" >
		</node>
		<node id="1046116392" x="-7332851.325750141" y="-2852348.488249751" >
		</node>
		<node id="1046116934" x="-7332426.446185332" y="-2851830.2939229636" >
		</node>
		<node id="1046117156" x="-7332803.300561841" y="-2852161.4846014194" >
		</node>
		<node id="1047000265" x="-7328419.976244126" y="-2853290.12696041" >
		</node>
		<node id="1047000275" x="-7328269.172346534" y="-2853576.969709408" >
		</node>
		<node id="1048879352" x="-7328826.473376715" y="-2853167.8064001715" >
		</node>
		<node id="1048879428" x="-7328539.785398044" y="-2853346.7237651446" >
		</node>
		<node id="1048880098" x="-7329693.865259976" y="-2854000.182766803" >
		</node>
		<node id="1049484837" x="-7331293.1717075575" y="-2852955.770663345" >
		</node>
		<node id="1050228187" x="-7330576.521615035" y="-2852102.058787023" >
		</node>
		<node id="1050228189" x="-7330702.322939745" y="-2852409.0541342446" >
		</node>
		<node id="1055725930" x="-7330490.813010141" y="-2853857.1796231023" >
		</node>
		<node id="1055726058" x="-7330549.039023862" y="-2853807.5827719034" >
		</node>
		<node id="1065518445" x="-7333293.397543424" y="-2852522.082446862" >
		</node>
		<node id="1065620469" x="-7333319.277762324" y="-2852545.6892968556" >
		</node>
		<node id="1065620477" x="-7333335.354391652" y="-2852550.802330402" >
		</node>
		<node id="1096547067" x="-7331198.4113542335" y="-2851724.5420613275" >
		</node>
		<node id="1096547084" x="-7331142.801738232" y="-2851690.9033227316" >
		</node>
		<node id="1096547159" x="-7331285.021136237" y="-2851561.836981754" >
		</node>
		<node id="1097971350" x="-7342144.537322297" y="-2850710.2758136326" >
		</node>
		<node id="1106862045" x="-7344811.3640452875" y="-2857992.0624929974" >
		</node>
		<node id="1106862066" x="-7344773.267266094" y="-2858039.886380264" >
		</node>
		<node id="1106862073" x="-7344934.517828854" y="-2858314.2232746943" >
		</node>
		<node id="1106862393" x="-7344732.560771684" y="-2858085.192767307" >
		</node>
		<node id="1106862399" x="-7344719.54648898" y="-2858063.7496020417" >
		</node>
		<node id="1106862604" x="-7345087.606407284" y="-2858547.8813231075" >
		</node>
		<node id="1106899589" x="-7347782.156422992" y="-2854931.0450502113" >
		</node>
		<node id="1107039644" x="-7345289.8753724145" y="-2860239.804876511" >
		</node>
		<node id="1107272586" x="-7346388.05556728" y="-2856071.0560021596" >
		</node>
		<node id="1107272587" x="-7346729.853923869" y="-2856077.4721286655" >
		</node>
		<node id="1107272607" x="-7346105.889019596" y="-2856381.008784493" >
		</node>
		<node id="1107272625" x="-7346138.100525097" y="-2856314.3676673435" >
		</node>
		<node id="1107272654" x="-7347344.925602803" y="-2854763.2293198933" >
		</node>
		<node id="1107272688" x="-7347533.157718798" y="-2854875.871390358" >
		</node>
		<node id="1108067347" x="-7343130.114441389" y="-2859072.863773491" >
		</node>
		<node id="1108068262" x="-7342740.00288117" y="-2858715.8844356393" >
		</node>
		<node id="1108068570" x="-7342149.614684042" y="-2858733.56843829" >
		</node>
		<node id="1108068623" x="-7342646.456682021" y="-2858809.9837070564" >
		</node>
		<node id="1108412365" x="-7343606.404723948" y="-2859861.880238653" >
		</node>
		<node id="1110146616" x="-7342321.77720263" y="-2858969.9388815546" >
		</node>
		<node id="1110147137" x="-7342380.751112299" y="-2858994.7016839613" >
		</node>
		<node id="1110285011" x="-7347900.477341368" y="-2855466.214560157" >
		</node>
		<node id="1110285015" x="-7347752.177393199" y="-2854736.0745254136" >
		</node>
		<node id="1111783688" x="-7341556.786871842" y="-2856937.08891333" >
		</node>
		<node id="1113256890" x="-7347105.083240812" y="-2852217.595263209" >
		</node>
		<node id="1113256897" x="-7344799.039674277" y="-2857485.599359012" >
		</node>
		<node id="1113784206" x="-7341488.124867148" y="-2848251.2379187136" >
		</node>
		<node id="1113784382" x="-7341168.540198995" y="-2847878.8811702915" >
		</node>
		<node id="1113784634" x="-7341430.060290241" y="-2848263.1421896615" >
		</node>
		<node id="1113784886" x="-7341178.6577668" y="-2847874.962366639" >
		</node>
		<node id="1117699233" x="-7346432.892947101" y="-2860689.8546602805" >
		</node>
		<node id="1117699235" x="-7346042.891710336" y="-2861379.798731312" >
		</node>
		<node id="1117699275" x="-7346752.651206599" y="-2860124.4049060415" >
		</node>
		<node id="1117699508" x="-7348119.458889032" y="-2860120.6419011587" >
		</node>
		<node id="1117699520" x="-7346477.652931291" y="-2860574.559404837" >
		</node>
		<node id="1117834700" x="-7346730.448661488" y="-2852654.898117778" >
		</node>
		<node id="1117834723" x="-7345945.521458496" y="-2852714.604723269" >
		</node>
		<node id="1117834797" x="-7346028.446084585" y="-2856219.866036159" >
		</node>
		<node id="1117834820" x="-7345641.574472371" y="-2852824.2004378107" >
		</node>
		<node id="1117834845" x="-7345687.365607852" y="-2852834.083042986" >
		</node>
		<node id="1117834875" x="-7345942.650904205" y="-2852687.030874855" >
		</node>
		<node id="1117834903" x="-7346398.274397726" y="-2852787.5761855235" >
		</node>
		<node id="1117834928" x="-7346022.104593724" y="-2856238.4926799736" >
		</node>
		<node id="1117834962" x="-7346588.874149239" y="-2852700.407941202" >
		</node>
		<node id="1117835058" x="-7346176.739635642" y="-2856399.6523105507" >
		</node>
		<node id="1147641280" x="-7341236.310905814" y="-2852319.9310222566" >
		</node>
		<node id="1240448049" x="-7350575.637189052" y="-2850507.260375191" >
		</node>
		<node id="1253474126" x="-7348871.438947275" y="-2859130.556731524" >
		</node>
		<node id="1265860770" x="-7333841.518711087" y="-2850796.704972588" >
		</node>
		<node id="1267558862" x="-7330441.288978649" y="-2853805.5481884284" >
		</node>
		<node id="1267558914" x="-7330496.306004116" y="-2853760.9838442495" >
		</node>
		<node id="1267559056" x="-7330275.90309192" y="-2853621.929053757" >
		</node>
		<node id="1269973944" x="-7328154.066514393" y="-2854915.9510497884" >
		</node>
		<node id="1269974041" x="-7327434.048597087" y="-2854319.6047493936" >
		</node>
		<node id="1269974164" x="-7327590.473829526" y="-2854398.8036975563" >
		</node>
		<node id="1269974569" x="-7327418.924698025" y="-2854288.583849282" >
		</node>
		<node id="1271279172" x="-7347187.995175874" y="-2861777.4158336534" >
		</node>
		<node id="1273790996" x="-7327526.7230664035" y="-2854192.0081005706" >
		</node>
		<node id="1273791003" x="-7328836.507145315" y="-2854302.6355159455" >
		</node>
		<node id="1273791505" x="-7328006.803237592" y="-2853804.550579876" >
		</node>
		<node id="1273791926" x="-7328161.42910117" y="-2853984.62710515" >
		</node>
		<node id="1273792115" x="-7327658.470061735" y="-2854312.866156264" >
		</node>
		<node id="1273989763" x="-7328875.598315489" y="-2854287.3979820837" >
		</node>
		<node id="1273989780" x="-7328943.804587437" y="-2854256.210931166" >
		</node>
		<node id="1273989827" x="-7328880.593961072" y="-2854286.3254493414" >
		</node>
		<node id="1273989831" x="-7328711.169334593" y="-2854489.6180519224" >
		</node>
		<node id="1273989837" x="-7329063.848919551" y="-2854289.235063933" >
		</node>
		<node id="1273989840" x="-7328890.6850170465" y="-2854297.0696408655" >
		</node>
		<node id="1273989870" x="-7328690.567726401" y="-2854524.008186942" >
		</node>
		<node id="1273989879" x="-7328483.990908199" y="-2854434.003658064" >
		</node>
		<node id="1273989896" x="-7328858.198079564" y="-2854324.4125228655" >
		</node>
		<node id="1273989910" x="-7328870.961235944" y="-2854301.2793856603" >
		</node>
		<node id="1273989943" x="-7328512.338042245" y="-2854433.5096720094" >
		</node>
		<node id="1273990040" x="-7328883.61413289" y="-2854306.3535243403" >
		</node>
		<node id="1274824865" x="-7328883.701879054" y="-2853404.571764524" >
		</node>
		<node id="1274824915" x="-7329006.449930104" y="-2854206.60630171" >
		</node>
		<node id="1274825058" x="-7329393.86781449" y="-2853809.323434441" >
		</node>
		<node id="1274825290" x="-7329726.43087727" y="-2853901.89964473" >
		</node>
		<node id="1274825508" x="-7329124.171945205" y="-2854239.791540509" >
		</node>
		<node id="1274825526" x="-7329022.51286259" y="-2853523.1031065104" >
		</node>
		<node id="1274825557" x="-7328671.603079064" y="-2853266.8831072575" >
		</node>
		<node id="1274825585" x="-7329600.498552333" y="-2853886.789304628" >
		</node>
		<node id="1274825615" x="-7329004.267223636" y="-2853613.814465223" >
		</node>
		<node id="1274826016" x="-7328777.614060782" y="-2853306.50994011" >
		</node>
		<node id="1274826078" x="-7329070.014108482" y="-2853681.596054951" >
		</node>
		<node id="1277760143" x="-7330901.317221264" y="-2853293.193040917" >
		</node>
		<node id="1277760214" x="-7330791.355612054" y="-2853759.399459825" >
		</node>
		<node id="1277760263" x="-7330872.528390545" y="-2853241.518127954" >
		</node>
		<node id="1277760266" x="-7330718.887519224" y="-2853811.320981189" >
		</node>
		<node id="1277760334" x="-7330859.548299482" y="-2853693.6553912647" >
		</node>
		<node id="1277760344" x="-7330890.269686817" y="-2853286.9205857576" >
		</node>
		<node id="1277760377" x="-7330908.668327417" y="-2853753.836728143" >
		</node>
		<node id="1277760485" x="-7330760.715934809" y="-2853759.7461948" >
		</node>
		<node id="1277760506" x="-7330902.657069112" y="-2853444.82190539" >
		</node>
		<node id="1277760531" x="-7331167.9183623865" y="-2852966.4983649114" >
		</node>
		<node id="1277760880" x="-7330895.754601985" y="-2853549.582728697" >
		</node>
		<node id="1277760901" x="-7330902.867630246" y="-2853432.184082483" >
		</node>
		<node id="1277761167" x="-7330902.526978395" y="-2853326.8708855235" >
		</node>
		<node id="1277761352" x="-7330908.3832541" y="-2853551.4126917315" >
		</node>
		<node id="1277761386" x="-7330861.223423755" y="-2853754.4770709896" >
		</node>
		<node id="1277761403" x="-7330607.53280014" y="-2853713.8392569656" >
		</node>
		<node id="1277761569" x="-7330801.637639756" y="-2853756.1268222886" >
		</node>
		<node id="1277761585" x="-7330653.078995247" y="-2853900.803047438" >
		</node>
		<node id="1280040217" x="-7344828.077553977" y="-2857717.5247691837" >
		</node>
		<node id="132347421" x="-7341935.973891328" y="-2848174.9762963173" >
		</node>
		<node id="1327927034" x="-7341714.716650924" y="-2857455.596267437" >
		</node>
		<node id="133485708" x="-7340679.377213721" y="-2846479.207009978" >
		</node>
		<node id="1360431821" x="-7346401.240788635" y="-2859107.6997633344" >
		</node>
		<node id="1360431826" x="-7346440.188781526" y="-2859132.4479718558" >
		</node>
		<node id="1360431839" x="-7345462.826920617" y="-2859166.262251661" >
		</node>
		<node id="1360431897" x="-7346702.053568719" y="-2859315.569296694" >
		</node>
		<node id="1360432227" x="-7347348.528219553" y="-2859708.803484096" >
		</node>
		<node id="1360432246" x="-7348005.359196708" y="-2859914.5423761816" >
		</node>
		<node id="1360432287" x="-7348305.417902203" y="-2859977.4145332086" >
		</node>
		<node id="1360432362" x="-7348143.986670768" y="-2860097.115654871" >
		</node>
		<node id="1360432376" x="-7346751.871320277" y="-2860110.64994211" >
		</node>
		<node id="1360432384" x="-7348179.6375320675" y="-2860185.5210490413" >
		</node>
		<node id="1360432399" x="-7348278.850078047" y="-2860254.1833874704" >
		</node>
		<node id="1360432701" x="-7346219.725141897" y="-2861548.609683346" >
		</node>
		<node id="1360432708" x="-7346204.096291479" y="-2861584.6244025393" >
		</node>
		<node id="1363061397" x="-7344702.114956416" y="-2851304.1016864427" >
		</node>
		<node id="1363061399" x="-7344703.980663234" y="-2851424.099423643" >
		</node>
		<node id="1363061402" x="-7344927.664869406" y="-2849799.633757394" >
		</node>
		<node id="1363061406" x="-7344710.401853781" y="-2851306.4070764263" >
		</node>
		<node id="1363061409" x="-7344712.140244789" y="-2851422.8476156914" >
		</node>
		<node id="1368135789" x="-7343705.459105526" y="-2861846.804178681" >
		</node>
		<node id="1368135852" x="-7343729.864270273" y="-2861881.051059882" >
		</node>
		<node id="1368137864" x="-7342643.95716739" y="-2862441.601429589" >
		</node>
		<node id="1368138980" x="-7342816.695455069" y="-2862748.398939232" >
		</node>
		<node id="1368141538" x="-7343365.276393743" y="-2863320.008536157" >
		</node>
		<node id="1370703765" x="-7349500.907998788" y="-2857761.3838021806" >
		</node>
		<node id="1370703828" x="-7347959.021562045" y="-2858288.429407829" >
		</node>
		<node id="1370703847" x="-7348339.0357186105" y="-2858408.3037053007" >
		</node>
		<node id="1370704383" x="-7349641.793106626" y="-2859022.2594390074" >
		</node>
		<node id="1370704421" x="-7348161.0729470765" y="-2859128.6245524655" >
		</node>
		<node id="1370704446" x="-7348366.138374202" y="-2859237.2296186066" >
		</node>
		<node id="1370704461" x="-7348357.288817081" y="-2859263.4417445497" >
		</node>
		<node id="1373371422" x="-7346820.671192184" y="-2852871.07521303" >
		</node>
		<node id="1373371440" x="-7346778.466356386" y="-2853205.993233816" >
		</node>
		<node id="1373371487" x="-7347064.465828801" y="-2854159.4706771965" >
		</node>
		<node id="1373371575" x="-7347134.361241959" y="-2854391.181755209" >
		</node>
		<node id="1373371621" x="-7347164.052405312" y="-2854487.424440173" >
		</node>
		<node id="1373435291" x="-7351470.957805152" y="-2850523.2236702014" >
		</node>
		<node id="1373435350" x="-7351443.11010223" y="-2850520.773006514" >
		</node>
		<node id="1373435363" x="-7353055.235030647" y="-2851656.092430086" >
		</node>
		<node id="1378100584" x="-7344576.88930329" y="-2854480.042712568" >
		</node>
		<node id="1378100613" x="-7344838.069576174" y="-2854798.056720671" >
		</node>
		<node id="1379358532" x="-7347812.141180391" y="-2858561.5993969655" >
		</node>
		<node id="1379358577" x="-7346779.79751876" y="-2859371.722411331" >
		</node>
		<node id="1379358578" x="-7347640.593939369" y="-2859474.90571959" >
		</node>
		<node id="1379439560" x="-7344587.909791551" y="-2854472.4021444046" >
		</node>
		<node id="1379439574" x="-7343648.279003115" y="-2854961.8661509133" >
		</node>
		<node id="1379439575" x="-7343637.001318426" y="-2854968.527784469" >
		</node>
		<node id="1379439609" x="-7345435.622577419" y="-2855504.276534489" >
		</node>
		<node id="1379439611" x="-7347495.1841890225" y="-2855574.70179711" >
		</node>
		<node id="1379439777" x="-7347646.48924288" y="-2855933.9588758573" >
		</node>
		<node id="1379439827" x="-7347638.779948791" y="-2855981.6023515756" >
		</node>
		<node id="1379439895" x="-7346345.744037425" y="-2856098.039348632" >
		</node>
		<node id="1379439902" x="-7346363.989967368" y="-2856123.7819028907" >
		</node>
		<node id="1379439909" x="-7346297.826074953" y="-2856163.2422829294" >
		</node>
		<node id="1379439910" x="-7346346.879979454" y="-2856167.662795242" >
		</node>
		<node id="1379439911" x="-7346338.709260678" y="-2856177.6840380025" >
		</node>
		<node id="1379439927" x="-7343785.45692373" y="-2856211.228130816" >
		</node>
		<node id="1379439936" x="-7343782.565867618" y="-2856234.0638177907" >
		</node>
		<node id="1379439951" x="-7346157.920479465" y="-2856402.1006459086" >
		</node>
		<node id="1379509396" x="-7344906.840223756" y="-2858292.7852069996" >
		</node>
		<node id="1389167133" x="-7345017.276360858" y="-2850646.8927274444" >
		</node>
		<node id="1389167135" x="-7344840.005874993" y="-2850645.015135681" >
		</node>
		<node id="1389167145" x="-7344839.572732443" y="-2850659.5468785195" >
		</node>
		<node id="1389167158" x="-7344809.069709796" y="-2850849.983757041" >
		</node>
		<node id="1389167170" x="-7345536.595198238" y="-2850990.3398186076" >
		</node>
		<node id="1389167176" x="-7346026.231883342" y="-2851002.6331970263" >
		</node>
		<node id="1389167178" x="-7346064.3587744115" y="-2851034.5082481615" >
		</node>
		<node id="1389167191" x="-7344747.600479436" y="-2851049.438400956" >
		</node>
		<node id="1389167198" x="-7344758.650159252" y="-2851080.166871546" >
		</node>
		<node id="1389167251" x="-7344692.260540852" y="-2851340.73568258" >
		</node>
		<node id="1389167277" x="-7344674.5718238605" y="-2851398.207617227" >
		</node>
		<node id="1389167280" x="-7344664.533882744" y="-2851407.9212138923" >
		</node>
		<node id="1389167293" x="-7344692.752374708" y="-2851432.496614326" >
		</node>
		<node id="1389167323" x="-7344775.4010970425" y="-2851545.77710333" >
		</node>
		<node id="1389167427" x="-7345316.252241083" y="-2852004.821830781" >
		</node>
		<node id="1389167453" x="-7346586.550090534" y="-2852213.4437893145" >
		</node>
		<node id="1389167554" x="-7345626.649944967" y="-2852810.239223255" >
		</node>
		<node id="1389167638" x="-7345082.834982407" y="-2853534.867715609" >
		</node>
		<node id="1389167659" x="-7345218.631658218" y="-2853968.014759716" >
		</node>
		<node id="1393378086" x="-7343037.29978426" y="-2850042.254119619" >
		</node>
		<node id="1393378087" x="-7343044.356315957" y="-2850049.5986408666" >
		</node>
		<node id="1393378098" x="-7342952.56401537" y="-2850342.5829031696" >
		</node>
		<node id="1393378128" x="-7343523.899031446" y="-2850419.715406921" >
		</node>
		<node id="1393378276" x="-7343591.545598249" y="-2850795.5448863665" >
		</node>
		<node id="1393378359" x="-7343426.694096785" y="-2850872.6307408772" >
		</node>
		<node id="1393378375" x="-7343433.4810484685" y="-2850884.104969978" >
		</node>
		<node id="1393378436" x="-7343348.024758364" y="-2851004.3439979386" >
		</node>
		<node id="1393378491" x="-7343461.079764277" y="-2851105.8085646946" >
		</node>
		<node id="1393378560" x="-7343198.078203699" y="-2851247.9859046955" >
		</node>
		<node id="1393378596" x="-7342444.086517539" y="-2851338.9128825474" >
		</node>
		<node id="1393378874" x="-7342886.083471146" y="-2851542.396399037" >
		</node>
		<node id="1393378957" x="-7342911.840448859" y="-2851605.650898302" >
		</node>
		<node id="1393379132" x="-7342866.12144929" y="-2851735.9243741417" >
		</node>
		<node id="1393379346" x="-7342718.762608854" y="-2852048.390527287" >
		</node>
		<node id="1393379349" x="-7342597.872912293" y="-2852051.8313322053" >
		</node>
		<node id="1393379724" x="-7343058.68342232" y="-2852614.706332469" >
		</node>
		<node id="1393381272" x="-7342824.437013798" y="-2854014.4267818704" >
		</node>
		<node id="1397984369" x="-7341998.658462774" y="-2853255.6658984614" >
		</node>
		<node id="1397984576" x="-7341216.163794386" y="-2853547.4285391513" >
		</node>
		<node id="1397985624" x="-7343753.167096467" y="-2855164.247172019" >
		</node>
		<node id="1397985986" x="-7341530.334905338" y="-2855755.8820789615" >
		</node>
		<node id="1397986137" x="-7341796.1113022445" y="-2856157.2735091443" >
		</node>
		<node id="1397986151" x="-7341893.990623654" y="-2856221.0103847696" >
		</node>
		<node id="1397986187" x="-7342035.363765535" y="-2856314.458026184" >
		</node>
		<node id="140804525" x="-7342289.499923559" y="-2848184.887125683" >
		</node>
		<node id="140804527" x="-7342256.3636016" y="-2848438.1846705913" >
		</node>
		<node id="140804535" x="-7342301.360907035" y="-2848788.800773335" >
		</node>
		<node id="140804544" x="-7342216.259420774" y="-2849197.9633472646" >
		</node>
		<node id="140806264" x="-7342280.051447316" y="-2848771.0105307973" >
		</node>
		<node id="140806267" x="-7342209.129489079" y="-2848666.203960195" >
		</node>
		<node id="140806268" x="-7342241.460402454" y="-2848436.284242025" >
		</node>
		<node id="140806270" x="-7342274.653470056" y="-2848183.142925242" >
		</node>
		<node id="140806271" x="-7342293.568941086" y="-2848031.6472918424" >
		</node>
		<node id="140807081" x="-7342191.746872748" y="-2848092.359722518" >
		</node>
		<node id="140807082" x="-7342166.858288835" y="-2848106.1809389098" >
		</node>
		<node id="140819571" x="-7346084.651206951" y="-2851079.2248778148" >
		</node>
		<node id="140819573" x="-7346051.404754863" y="-2851039.64165436" >
		</node>
		<node id="140819574" x="-7345863.237248976" y="-2850825.9692449123" >
		</node>
		<node id="140820186" x="-7345209.0336161535" y="-2850107.8057786846" >
		</node>
		<node id="140820187" x="-7344938.532709346" y="-2849811.4540708647" >
		</node>
		<node id="140821762" x="-7346093.64637444" y="-2851314.363186048" >
		</node>
		<node id="140821764" x="-7346104.0665370645" y="-2851247.101506787" >
		</node>
		<node id="140822925" x="-7346018.759017205" y="-2851575.121561062" >
		</node>
		<node id="140824198" x="-7345862.574625993" y="-2851623.223931398" >
		</node>
		<node id="140829053" x="-7344863.512080649" y="-2850652.9717395105" >
		</node>
		<node id="140829084" x="-7343412.240882343" y="-2849225.0420329967" >
		</node>
		<node id="140829091" x="-7343070.7219650885" y="-2848527.4264759175" >
		</node>
		<node id="140829103" x="-7342453.486757457" y="-2847826.9013453517" >
		</node>
		<node id="140829110" x="-7342198.9748302335" y="-2847676.1904304083" >
		</node>
		<node id="140838859" x="-7342205.978432406" y="-2847665.101492478" >
		</node>
		<node id="140838867" x="-7342473.50920003" y="-2847830.072782109" >
		</node>
		<node id="140838881" x="-7343250.969522783" y="-2848773.9617363513" >
		</node>
		<node id="140838883" x="-7343430.151925581" y="-2849220.44537786" >
		</node>
		<node id="140838890" x="-7343961.902733983" y="-2849907.1157524684" >
		</node>
		<node id="140838893" x="-7344193.489234551" y="-2850099.6202363474" >
		</node>
		<node id="140838899" x="-7344828.751854795" y="-2850620.6471563815" >
		</node>
		<node id="140838902" x="-7345044.487963902" y="-2850651.7069019172" >
		</node>
		<node id="140838918" x="-7346072.526850864" y="-2851038.3550536707" >
		</node>
		<node id="140848383" x="-7343569.118054002" y="-2848317.95814276" >
		</node>
		<node id="140848384" x="-7343424.051225109" y="-2848158.8892872147" >
		</node>
		<node id="140848388" x="-7343004.463527095" y="-2847832.736557323" >
		</node>
		<node id="140855843" x="-7342553.077780655" y="-2847318.2521806443" >
		</node>
		<node id="1411861874" x="-7347355.566446428" y="-2842128.1067928746" >
		</node>
		<node id="1411865287" x="-7347447.026064414" y="-2842556.5363936187" >
		</node>
		<node id="1411865304" x="-7347493.476604131" y="-2842447.1098290742" >
		</node>
		<node id="1411865305" x="-7347520.324458012" y="-2842406.755813404" >
		</node>
		<node id="1412581979" x="-7347335.189692583" y="-2842130.1458937866" >
		</node>
		<node id="1414239480" x="-7347454.414460357" y="-2842410.894172547" >
		</node>
		<node id="1416684597" x="-7345670.549201239" y="-2845434.517158623" >
		</node>
		<node id="1417092371" x="-7337379.783744277" y="-2853117.070615531" >
		</node>
		<node id="1420074023" x="-7340079.520608597" y="-2848529.2968398277" >
		</node>
		<node id="1421376033" x="-7344066.05784137" y="-2848238.937688683" >
		</node>
		<node id="1421376041" x="-7344038.829945023" y="-2848263.8901042417" >
		</node>
		<node id="1421393940" x="-7344098.357526181" y="-2848219.835222009" >
		</node>
		<node id="1421393958" x="-7344061.936128527" y="-2848254.7166767623" >
		</node>
		<node id="1423143099" x="-7344215.766269822" y="-2848123.176088296" >
		</node>
		<node id="1423143122" x="-7344220.30902293" y="-2848236.778552979" >
		</node>
		<node id="1423143129" x="-7344070.341217242" y="-2848249.4544619834" >
		</node>
		<node id="1423542891" x="-7347477.855922385" y="-2842438.1311620777" >
		</node>
		<node id="142774898" x="-7345584.75382227" y="-2845453.8672900028" >
		</node>
		<node id="142774900" x="-7345618.512138717" y="-2845436.715724371" >
		</node>
		<node id="142774902" x="-7345640.753298043" y="-2845463.965951287" >
		</node>
		<node id="142775716" x="-7345608.71174118" y="-2845579.4410133106" >
		</node>
		<node id="142777317" x="-7343012.3896227125" y="-2851385.270455359" >
		</node>
		<node id="142777323" x="-7343115.879797122" y="-2851292.024711687" >
		</node>
		<node id="142777360" x="-7342824.213003813" y="-2851164.091000542" >
		</node>
		<node id="142778762" x="-7341891.020498128" y="-2856202.739597545" >
		</node>
		<node id="142778785" x="-7341899.120109814" y="-2856207.8185164686" >
		</node>
		<node id="142783589" x="-7345397.857678479" y="-2847905.978068391" >
		</node>
		<node id="142787018" x="-7345824.04599331" y="-2848442.1549527645" >
		</node>
		<node id="142787021" x="-7345921.670366404" y="-2848508.608868433" >
		</node>
		<node id="142788280" x="-7346076.2980190925" y="-2848889.2705758284" >
		</node>
		<node id="142788297" x="-7344955.263163348" y="-2848118.145341481" >
		</node>
		<node id="142788951" x="-7344925.822482927" y="-2848099.333323781" >
		</node>
		<node id="142789352" x="-7344960.499885726" y="-2848067.8420483363" >
		</node>
		<node id="142789517" x="-7345634.931051409" y="-2847736.235085731" >
		</node>
		<node id="142789526" x="-7346184.265919896" y="-2847019.3510921327" >
		</node>
		<node id="142789528" x="-7346056.4159605615" y="-2846798.492256766" >
		</node>
		<node id="142793063" x="-7345793.432745625" y="-2847685.5301340916" >
		</node>
		<node id="142793553" x="-7345522.573881341" y="-2847842.0681525515" >
		</node>
		<node id="142794473" x="-7345514.001989368" y="-2847825.2391270967" >
		</node>
		<node id="142795188" x="-7345951.3668755535" y="-2847658.130541357" >
		</node>
		<node id="142796703" x="-7344174.676771852" y="-2848359.798317974" >
		</node>
		<node id="142799348" x="-7343178.508928515" y="-2849229.2133433693" >
		</node>
		<node id="142799349" x="-7343022.450668335" y="-2849360.5553833325" >
		</node>
		<node id="142799353" x="-7342673.2583081545" y="-2849655.4017815385" >
		</node>
		<node id="142799356" x="-7342214.65035288" y="-2850009.8439478776" >
		</node>
		<node id="142799357" x="-7342202.175778752" y="-2850035.232538673" >
		</node>
		<node id="142801237" x="-7344953.914204917" y="-2849243.1616405398" >
		</node>
		<node id="142802741" x="-7344828.720934834" y="-2849502.8718123455" >
		</node>
		<node id="142803399" x="-7344801.0447253175" y="-2849660.1455183052" >
		</node>
		<node id="142803400" x="-7344784.910890803" y="-2849801.7562748045" >
		</node>
		<node id="142803401" x="-7344755.105955906" y="-2849958.222609049" >
		</node>
		<node id="142803940" x="-7344735.271992663" y="-2849972.4058218566" >
		</node>
		<node id="142803941" x="-7344599.1701324945" y="-2849986.7275735894" >
		</node>
		<node id="142805147" x="-7344214.30574786" y="-2850116.754151573" >
		</node>
		<node id="142805148" x="-7344189.810294404" y="-2850119.3727818322" >
		</node>
		<node id="142806214" x="-7344041.188280646" y="-2850258.3828616655" >
		</node>
		<node id="142806215" x="-7343869.459605484" y="-2850424.408647964" >
		</node>
		<node id="142806216" x="-7343750.834973972" y="-2850539.1146884" >
		</node>
		<node id="142808163" x="-7343317.168062408" y="-2850335.474056749" >
		</node>
		<node id="142808164" x="-7343226.5249601975" y="-2850239.842260337" >
		</node>
		<node id="142808165" x="-7343164.16396739" y="-2850174.439329037" >
		</node>
		<node id="142808168" x="-7342797.179596557" y="-2849789.950102569" >
		</node>
		<node id="142808169" x="-7342518.806108526" y="-2849409.3584612156" >
		</node>
		<node id="142808170" x="-7342451.518919745" y="-2849299.700344549" >
		</node>
		<node id="142808171" x="-7342297.19899194" y="-2849086.6224386543" >
		</node>
		<node id="142808173" x="-7341966.097851827" y="-2848640.403767287" >
		</node>
		<node id="142808175" x="-7341851.840901327" y="-2848487.5107954517" >
		</node>
		<node id="142808179" x="-7341578.965414683" y="-2848034.4763748306" >
		</node>